PyDSS/api/src/tmp_pydss_project/project1/DSSfiles/218672ac-d416-4e9f-8578-0d2a531aa33c_distribution_federate/315027be-b835-4d3d-8ded-53fe35ed515c_distribution_federate/PVSystems_new.dss
New Generator.pv_load_p6ulv2312_1 conn=wye bus1=p6ulv2312.1 kV=0.12 model=7 kW=0.28855480701865877 kvar=-0.0 Phases=1
New Generator.pv_load_p6ulv2313_2 conn=wye bus1=p6ulv2313.2 kV=0.12 model=7 kW=0.371212875091003 kvar=-0.0 Phases=1
New Generator.pv_load_p6ulv2321_2 conn=wye bus1=p6ulv2321.2 kV=0.12 model=7 kW=0.22392972365177016 kvar=-0.0 Phases=1
New Generator.pv_load_p6ulv2330_1 conn=wye bus1=p6ulv2330.1 kV=0.12 model=7 kW=0.27352606736914165 kvar=-0.0 Phases=1
New Generator.pv_load_p6ulv2330_2 conn=wye bus1=p6ulv2330.2 kV=0.12 model=7 kW=0.27352606736914165 kvar=-0.0 Phases=1
New Generator.pv_load_p6ulv2332_2 conn=wye bus1=p6ulv2332.2 kV=0.12 model=7 kW=0.29907492477332076 kvar=-0.0 Phases=1
New Generator.pv_load_p6ulv2333_2 conn=wye bus1=p6ulv2333.2 kV=0.12 model=7 kW=0.1698262609135085 kvar=-0.0 Phases=1
New Generator.pv_load_p6ulv2335_2 conn=wye bus1=p6ulv2335.2 kV=0.12 model=7 kW=0.2043923621073979 kvar=-0.0 Phases=1
New Generator.pv_load_p6ulv2336_2 conn=wye bus1=p6ulv2336.2 kV=0.12 model=7 kW=0.2449714620350591 kvar=-0.0 Phases=1
New Generator.pv_load_p6ulv2338_2 conn=wye bus1=p6ulv2338.2 kV=0.12 model=7 kW=0.3697100011260513 kvar=-0.0 Phases=1
New Generator.pv_load_p6ulv2344_2 conn=wye bus1=p6ulv2344.2 kV=0.12 model=7 kW=0.24346858807010738 kvar=-0.0 Phases=1
New Generator.pv_load_p6ulv2347_1 conn=wye bus1=p6ulv2347.1 kV=0.12 model=7 kW=0.4749126815466361 kvar=-0.0 Phases=1
New Generator.pv_load_p6ulv2347_2 conn=wye bus1=p6ulv2347.2 kV=0.12 model=7 kW=0.4749126815466361 kvar=-0.0 Phases=1
New Generator.pv_load_p6ulv2351_1 conn=wye bus1=p6ulv2351.1 kV=0.12 model=7 kW=0.1818492526331222 kvar=-0.0 Phases=1
New Generator.pv_load_p6ulv2354_2 conn=wye bus1=p6ulv2354.2 kV=0.12 model=7 kW=0.3171094123527413 kvar=-0.0 Phases=1
New Generator.pv_load_p6ulv2355_1 conn=wye bus1=p6ulv2355.1 kV=0.12 model=7 kW=0.24948008392991425 kvar=-0.0 Phases=1
New Generator.pv_load_p6ulv2355_2 conn=wye bus1=p6ulv2355.2 kV=0.12 model=7 kW=0.24948008392991425 kvar=-0.0 Phases=1
New Generator.pv_load_p6ulv2357_2 conn=wye bus1=p6ulv2357.2 kV=0.12 model=7 kW=0.09468196151633687 kvar=-0.0 Phases=1
New Generator.pv_load_p6ulv2358_1 conn=wye bus1=p6ulv2358.1 kV=0.12 model=7 kW=0.5816182359321727 kvar=-0.0 Phases=1
New Generator.pv_load_p6ulv2361_2 conn=wye bus1=p6ulv2361.2 kV=0.12 model=7 kW=0.3156065383877897 kvar=-0.0 Phases=1
New Generator.pv_load_p6ulv2366_2 conn=wye bus1=p6ulv2366.2 kV=0.12 model=7 kW=0.26450882357943134 kvar=-0.0 Phases=1
New Generator.pv_load_p6ulv2372_2 conn=wye bus1=p6ulv2372.2 kV=0.12 model=7 kW=0.14427740350932938 kvar=-0.0 Phases=1
New Generator.pv_load_p6ulv2373_2 conn=wye bus1=p6ulv2373.2 kV=0.12 model=7 kW=0.16832338694855678 kvar=-0.0 Phases=1
New Generator.pv_load_p6ulv2381_2 conn=wye bus1=p6ulv2381.2 kV=0.12 model=7 kW=0.23745709221030054 kvar=-0.0 Phases=1
New Generator.pv_load_p6ulv2382_2 conn=wye bus1=p6ulv2382.2 kV=0.12 model=7 kW=0.3621956313012927 kvar=-0.0 Phases=1
New Generator.pv_load_p6ulv2384_2 conn=wye bus1=p6ulv2384.2 kV=0.12 model=7 kW=0.27502894133409334 kvar=-0.0 Phases=1
New Generator.pv_load_p6ulv2385_2 conn=wye bus1=p6ulv2385.2 kV=0.12 model=7 kW=0.2825433111588519 kvar=-0.0 Phases=1
New Generator.pv_load_p6ulv2389_1 conn=wye bus1=p6ulv2389.1 kV=0.12 model=7 kW=0.3020806727032242 kvar=-0.0 Phases=1
New Generator.pv_load_p6ulv2391_1 conn=wye bus1=p6ulv2391.1 kV=0.12 model=7 kW=0.25098295789486597 kvar=-0.0 Phases=1
New Generator.pv_load_p6ulv2391_2 conn=wye bus1=p6ulv2391.2 kV=0.12 model=7 kW=0.25098295789486597 kvar=-0.0 Phases=1
New Generator.pv_load_p6ulv2392_2 conn=wye bus1=p6ulv2392.2 kV=0.12 model=7 kW=0.3546812614765341 kvar=-0.0 Phases=1
New Generator.pv_load_p6ulv2397_2 conn=wye bus1=p6ulv2397.2 kV=0.12 model=7 kW=0.4463580762125536 kvar=-0.0 Phases=1
New Generator.pv_load_p6ulv2399_2 conn=wye bus1=p6ulv2399.2 kV=0.12 model=7 kW=0.3982661093340988 kvar=-0.0 Phases=1
New Generator.pv_load_p6ulv2400_2 conn=wye bus1=p6ulv2400.2 kV=0.12 model=7 kW=0.43433508449293984 kvar=-0.0 Phases=1
New Generator.pv_load_p6ulv2403_1 conn=wye bus1=p6ulv2403.1 kV=0.12 model=7 kW=0.2825433111588519 kvar=-0.0 Phases=1
New Generator.pv_load_p6ulv2404_2 conn=wye bus1=p6ulv2404.2 kV=0.12 model=7 kW=0.3156065383877897 kvar=-0.0 Phases=1
New Generator.pv_load_p6ulv2407_1 conn=wye bus1=p6ulv2407.1 kV=0.12 model=7 kW=0.339652521827017 kvar=-0.0 Phases=1
New Generator.pv_load_p6ulv2408_2 conn=wye bus1=p6ulv2408.2 kV=0.12 model=7 kW=0.37722587382477485 kvar=-0.0 Phases=1
New Generator.pv_load_p6ulv2409_2 conn=wye bus1=p6ulv2409.2 kV=0.12 model=7 kW=0.6041613454064484 kvar=-0.0 Phases=1
New Generator.pv_load_p6ulv2413_2 conn=wye bus1=p6ulv2413.2 kV=0.12 model=7 kW=0.24346858807010738 kvar=-0.0 Phases=1
New Generator.pv_load_p6ulv2419_2 conn=wye bus1=p6ulv2419.2 kV=0.12 model=7 kW=0.10820797748829879 kvar=-0.0 Phases=1
New Generator.pv_load_p6ulv2421_2 conn=wye bus1=p6ulv2421.2 kV=0.12 model=7 kW=0.08115594554437497 kvar=-0.0 Phases=1
New Generator.pv_load_p6ulv2426_1 conn=wye bus1=p6ulv2426.1 kV=0.12 model=7 kW=0.43433508449293984 kvar=-0.0 Phases=1
New Generator.pv_load_p6ulv2429 conn=wye bus1=p6ulv2429.1.2.3 kV=0.48 model=7 kW=17.04277110742822 kvar=-0.0 Phases=3
New Generator.pv_load_p6ulv2430_1 conn=wye bus1=p6ulv2430.1 kV=0.12 model=7 kW=0.32011516028264475 kvar=-0.0 Phases=1
New Generator.pv_load_p6ulv2430_2 conn=wye bus1=p6ulv2430.2 kV=0.12 model=7 kW=0.32011516028264475 kvar=-0.0 Phases=1
New Generator.pv_load_p6ulv2433 conn=wye bus1=p6ulv2433.1.2.3 kV=0.48 model=7 kW=23.835821543968557 kvar=-0.0 Phases=3
New Generator.pv_load_p6ulv2440_1 conn=wye bus1=p6ulv2440.1 kV=0.12 model=7 kW=1.024970564214823 kvar=-0.0 Phases=1
New Generator.pv_load_p6ulv2440_2 conn=wye bus1=p6ulv2440.2 kV=0.12 model=7 kW=1.024970564214823 kvar=-0.0 Phases=1
New Generator.pv_load_p6ulv2443_1 conn=wye bus1=p6ulv2443.1 kV=0.12 model=7 kW=0.23895996617525225 kvar=-0.0 Phases=1
New Generator.pv_load_p6ulv2443_2 conn=wye bus1=p6ulv2443.2 kV=0.12 model=7 kW=0.23895996617525225 kvar=-0.0 Phases=1
New Generator.pv_load_p6ulv2447_2 conn=wye bus1=p6ulv2447.2 kV=0.12 model=7 kW=0.22693697445563854 kvar=-0.0 Phases=1
New Generator.pv_load_p6ulv2455_1 conn=wye bus1=p6ulv2455.1 kV=0.12 model=7 kW=0.21791822779196332 kvar=-0.0 Phases=1
New Generator.pv_load_p6ulv3613_1 conn=wye bus1=p6ulv3613.1 kV=0.12 model=7 kW=0.4959529170559602 kvar=-0.0 Phases=1
New Generator.pv_load_p6ulv3614_2 conn=wye bus1=p6ulv3614.2 kV=0.12 model=7 kW=0.17583775677331534 kvar=-0.0 Phases=1
New Generator.pv_load_p6ulv3627_1 conn=wye bus1=p6ulv3627.1 kV=0.12 model=7 kW=0.24046284014020394 kvar=-0.0 Phases=1
New Generator.pv_load_p6ulv4274_1 conn=wye bus1=p6ulv4274.1 kV=0.12 model=7 kW=0.2705203194392382 kvar=-0.0 Phases=1
New Generator.pv_load_p6ulv4275_2 conn=wye bus1=p6ulv4275.2 kV=0.12 model=7 kW=0.34265826975692043 kvar=-0.0 Phases=1
New Generator.pv_load_p6ulv4278_1 conn=wye bus1=p6ulv4278.1 kV=0.12 model=7 kW=0.16080901712379822 kvar=-0.0 Phases=1
New Generator.pv_load_p6ulv4279_1 conn=wye bus1=p6ulv4279.1 kV=0.12 model=7 kW=0.3005777987382725 kvar=-0.0 Phases=1
New Generator.pv_load_p6ulv4281 conn=wye bus1=p6ulv4281.1.2.3 kV=0.48 model=7 kW=6.098722664732648 kvar=-0.0 Phases=3
New Generator.pv_load_p6ulv4293_2 conn=wye bus1=p6ulv4293.2 kV=0.12 model=7 kW=0.12624261535511583 kvar=-0.0 Phases=1
New Generator.pv_load_p6ulv4295_2 conn=wye bus1=p6ulv4295.2 kV=0.12 model=7 kW=0.18485500056302565 kvar=-0.0 Phases=1
New Generator.pv_load_p6ulv4296_1 conn=wye bus1=p6ulv4296.1 kV=0.12 model=7 kW=0.5320233950887662 kvar=-0.0 Phases=1
New Generator.pv_load_p6ulv4299_2 conn=wye bus1=p6ulv4299.2 kV=0.12 model=7 kW=0.5004615389508152 kvar=-0.0 Phases=1
New Generator.pv_load_p6ulv4301_1 conn=wye bus1=p6ulv4301.1 kV=0.12 model=7 kW=0.2554915797897211 kvar=-0.0 Phases=1
New Generator.pv_load_p6ulv4301_2 conn=wye bus1=p6ulv4301.2 kV=0.12 model=7 kW=0.2554915797897211 kvar=-0.0 Phases=1
New Generator.pv_load_p6ulv4303_2 conn=wye bus1=p6ulv4303.2 kV=0.12 model=7 kW=0.2058952360723496 kvar=-0.0 Phases=1
New Generator.pv_load_p6ulv4304_1 conn=wye bus1=p6ulv4304.1 kV=0.12 model=7 kW=0.9378023713736585 kvar=-0.0 Phases=1
New Generator.pv_load_p6ulv4304_2 conn=wye bus1=p6ulv4304.2 kV=0.12 model=7 kW=0.9378023713736585 kvar=-0.0 Phases=1
New Generator.pv_load_p6ulv4306_2 conn=wye bus1=p6ulv4306.2 kV=0.12 model=7 kW=1.5810384398688513 kvar=-0.0 Phases=1
New Generator.pv_load_p6ulv8201 conn=wye bus1=p6ulv8201.1.2.3 kV=0.48 model=7 kW=5.891326057569312 kvar=-0.0 Phases=3
New Generator.pv_load_p6ulv8203_2 conn=wye bus1=p6ulv8203.2 kV=0.12 model=7 kW=1.2293629263222208 kvar=-0.0 Phases=1
New Generator.pv_load_p6ulv8207_2 conn=wye bus1=p6ulv8207.2 kV=0.12 model=7 kW=0.28404618512380364 kvar=-0.0 Phases=1
New Generator.pv_load_p6ulv8213 conn=wye bus1=p6ulv8213.1.2.3 kV=0.48 model=7 kW=9.035368449727596 kvar=-0.0 Phases=3
New Generator.pv_load_p6ulv8217_1 conn=wye bus1=p6ulv8217.1 kV=0.12 model=7 kW=0.1908664964228325 kvar=-0.0 Phases=1
New Generator.pv_load_p6ulv8218_1 conn=wye bus1=p6ulv8218.1 kV=0.12 model=7 kW=0.4764155555115878 kvar=-0.0 Phases=1
New Generator.pv_load_p6ulv8220_2 conn=wye bus1=p6ulv8220.2 kV=0.12 model=7 kW=0.10369935559344366 kvar=-0.0 Phases=1
New Generator.pv_load_p6ulv8221_1 conn=wye bus1=p6ulv8221.1 kV=0.12 model=7 kW=0.23895996617525225 kvar=-0.0 Phases=1
New Generator.pv_load_p6ulv8221_2 conn=wye bus1=p6ulv8221.2 kV=0.12 model=7 kW=0.23895996617525225 kvar=-0.0 Phases=1
New Generator.pv_load_p6ulv11274_2 conn=wye bus1=p6ulv11274.2 kV=0.12 model=7 kW=0.2900576809836105 kvar=-0.0 Phases=1
New Generator.pv_load_p6ulv11275_2 conn=wye bus1=p6ulv11275.2 kV=0.12 model=7 kW=0.2058952360723496 kvar=-0.0 Phases=1
New Generator.pv_load_p6ulv11329_1 conn=wye bus1=p6ulv11329.1 kV=0.12 model=7 kW=0.39526036140419535 kvar=-0.0 Phases=1
New Generator.pv_load_p6ulv11331_2 conn=wye bus1=p6ulv11331.2 kV=0.12 model=7 kW=0.2795375632289485 kvar=-0.0 Phases=1
New Generator.pv_load_p6ulv11338_2 conn=wye bus1=p6ulv11338.2 kV=0.12 model=7 kW=0.2584973277196246 kvar=-0.0 Phases=1
New Generator.pv_load_p6ulv13840_2 conn=wye bus1=p6ulv13840.2 kV=0.12 model=7 kW=0.360692757336341 kvar=-0.0 Phases=1
New Generator.pv_load_p6ulv13843_1 conn=wye bus1=p6ulv13843.1 kV=0.12 model=7 kW=0.36670425319614786 kvar=-0.0 Phases=1
New Generator.pv_load_p6ulv13843_2 conn=wye bus1=p6ulv13843.2 kV=0.12 model=7 kW=0.36670425319614786 kvar=-0.0 Phases=1
New Generator.pv_load_p6ulv13845_1 conn=wye bus1=p6ulv13845.1 kV=0.12 model=7 kW=0.371212875091003 kvar=-0.0 Phases=1
New Generator.pv_load_p6ulv13845_2 conn=wye bus1=p6ulv13845.2 kV=0.12 model=7 kW=0.371212875091003 kvar=-0.0 Phases=1
New Generator.pv_load_p6ulv13846_1 conn=wye bus1=p6ulv13846.1 kV=0.12 model=7 kW=0.37722587382477485 kvar=-0.0 Phases=1
New Generator.pv_load_p6ulv13847_2 conn=wye bus1=p6ulv13847.2 kV=0.12 model=7 kW=0.07063582778971297 kvar=-0.0 Phases=1
New Generator.pv_load_p6ulv13944_1 conn=wye bus1=p6ulv13944.1 kV=0.12 model=7 kW=0.27352606736914165 kvar=-0.0 Phases=1
New Generator.pv_load_p6ulv13944_2 conn=wye bus1=p6ulv13944.2 kV=0.12 model=7 kW=0.27352606736914165 kvar=-0.0 Phases=1
New Generator.pv_load_p6ulv13952_1 conn=wye bus1=p6ulv13952.1 kV=0.12 model=7 kW=0.29757205080836907 kvar=-0.0 Phases=1
New Generator.pv_load_p6ulv13952_2 conn=wye bus1=p6ulv13952.2 kV=0.12 model=7 kW=0.29757205080836907 kvar=-0.0 Phases=1
New Generator.pv_load_p6ulv13953_1 conn=wye bus1=p6ulv13953.1 kV=0.12 model=7 kW=0.4012718572640022 kvar=-0.0 Phases=1
New Generator.pv_load_p6ulv13955_2 conn=wye bus1=p6ulv13955.2 kV=0.12 model=7 kW=0.30358354666817594 kvar=-0.0 Phases=1
New Generator.pv_load_p6ulv13960_2 conn=wye bus1=p6ulv13960.2 kV=0.12 model=7 kW=0.2960691768434174 kvar=-0.0 Phases=1
New Generator.pv_load_p6ulv13961_1 conn=wye bus1=p6ulv13961.1 kV=0.12 model=7 kW=0.39526036140419535 kvar=-0.0 Phases=1
New Generator.pv_load_p6ulv13962_2 conn=wye bus1=p6ulv13962.2 kV=0.12 model=7 kW=0.17734063073826706 kvar=-0.0 Phases=1
New Generator.pv_load_p6ulv13967_2 conn=wye bus1=p6ulv13967.2 kV=0.12 model=7 kW=0.339652521827017 kvar=-0.0 Phases=1
New Generator.pv_load_p6ulv13974_1 conn=wye bus1=p6ulv13974.1 kV=0.12 model=7 kW=0.14277437925698117 kvar=-0.0 Phases=1
New Generator.pv_load_p6ulv13976_2 conn=wye bus1=p6ulv13976.2 kV=0.12 model=7 kW=0.26300594961447965 kvar=-0.0 Phases=1
New Generator.pv_load_p6ulv13980_1 conn=wye bus1=p6ulv13980.1 kV=0.12 model=7 kW=0.44335232828265014 kvar=-0.0 Phases=1
New Generator.pv_load_p6ulv13985_2 conn=wye bus1=p6ulv13985.2 kV=0.12 model=7 kW=0.339652521827017 kvar=-0.0 Phases=1
New Generator.pv_load_p6ulv13986_1 conn=wye bus1=p6ulv13986.1 kV=0.12 model=7 kW=1.9747914186862001 kvar=-0.0 Phases=1
New Generator.pv_load_p6ulv13986_2 conn=wye bus1=p6ulv13986.2 kV=0.12 model=7 kW=1.9747914186862001 kvar=-0.0 Phases=1
New Generator.pv_load_p6ulv13989_2 conn=wye bus1=p6ulv13989.2 kV=0.12 model=7 kW=0.19988374021254274 kvar=-0.0 Phases=1
New Generator.pv_load_p6ulv14049_2 conn=wye bus1=p6ulv14049.2 kV=0.12 model=7 kW=0.10820797748829879 kvar=-0.0 Phases=1
New Generator.pv_load_p6ulv14053_2 conn=wye bus1=p6ulv14053.2 kV=0.12 model=7 kW=0.3231209082125482 kvar=-0.0 Phases=1
New Generator.pv_load_p6ulv14054_1 conn=wye bus1=p6ulv14054.1 kV=0.12 model=7 kW=0.3306352780373067 kvar=-0.0 Phases=1
New Generator.pv_load_p6ulv14057_1 conn=wye bus1=p6ulv14057.1 kV=0.12 model=7 kW=0.3141036644228379 kvar=-0.0 Phases=1
New Generator.pv_load_p6ulv14061_1 conn=wye bus1=p6ulv14061.1 kV=0.12 model=7 kW=0.24346858807010738 kvar=-0.0 Phases=1
New Generator.pv_load_p6ulv14061_2 conn=wye bus1=p6ulv14061.2 kV=0.12 model=7 kW=0.24346858807010738 kvar=-0.0 Phases=1
New Generator.pv_load_p6ulv14063_1 conn=wye bus1=p6ulv14063.1 kV=0.12 model=7 kW=0.22693697445563854 kvar=-0.0 Phases=1
New Generator.pv_load_p6ulv14065_1 conn=wye bus1=p6ulv14065.1 kV=0.12 model=7 kW=0.17583775677331534 kvar=-0.0 Phases=1
New Generator.pv_load_p6ulv14065_2 conn=wye bus1=p6ulv14065.2 kV=0.12 model=7 kW=0.17583775677331534 kvar=-0.0 Phases=1
New Generator.pv_load_p6ulv14068_2 conn=wye bus1=p6ulv14068.2 kV=0.12 model=7 kW=0.29757205080836907 kvar=-0.0 Phases=1
New Generator.pv_load_p6ulv14069_1 conn=wye bus1=p6ulv14069.1 kV=0.12 model=7 kW=0.29757205080836907 kvar=-0.0 Phases=1
New Generator.pv_load_p6ulv14072_2 conn=wye bus1=p6ulv14072.2 kV=0.12 model=7 kW=0.19387224435273592 kvar=-0.0 Phases=1
New Generator.pv_load_p6ulv14084_1 conn=wye bus1=p6ulv14084.1 kV=0.12 model=7 kW=0.28554905908875533 kvar=-0.0 Phases=1
New Generator.pv_load_p6ulv14084_2 conn=wye bus1=p6ulv14084.2 kV=0.12 model=7 kW=0.28554905908875533 kvar=-0.0 Phases=1
New Generator.pv_load_p6ulv14088_1 conn=wye bus1=p6ulv14088.1 kV=0.12 model=7 kW=0.6221958329858689 kvar=-0.0 Phases=1
New Generator.pv_load_p6ulv14094_2 conn=wye bus1=p6ulv14094.2 kV=0.12 model=7 kW=0.23294847031544538 kvar=-0.0 Phases=1
New Generator.pv_load_p6ulv14098_1 conn=wye bus1=p6ulv14098.1 kV=0.12 model=7 kW=0.2600002016845762 kvar=-0.0 Phases=1
New Generator.pv_load_p6ulv14099_2 conn=wye bus1=p6ulv14099.2 kV=0.12 model=7 kW=0.21040385796720473 kvar=-0.0 Phases=1
New Generator.pv_load_p6ulv14104 conn=wye bus1=p6ulv14104.1.2.3 kV=0.48 model=7 kW=24.88783331943476 kvar=-0.0 Phases=3
New Generator.pv_load_p6ulv14109_1 conn=wye bus1=p6ulv14109.1 kV=0.12 model=7 kW=0.21190673193215645 kvar=-0.0 Phases=1
New Generator.pv_load_p6ulv14112_2 conn=wye bus1=p6ulv14112.2 kV=0.12 model=7 kW=0.10219648162849194 kvar=-0.0 Phases=1
New Generator.pv_load_p6ulv14113_1 conn=wye bus1=p6ulv14113.1 kV=0.12 model=7 kW=0.22693697445563854 kvar=-0.0 Phases=1
New Generator.pv_load_p6ulv14113_2 conn=wye bus1=p6ulv14113.2 kV=0.12 model=7 kW=0.22693697445563854 kvar=-0.0 Phases=1
New Generator.pv_load_p6ulv14118_2 conn=wye bus1=p6ulv14118.2 kV=0.12 model=7 kW=0.12473974139016412 kvar=-0.0 Phases=1
New Generator.pv_load_p6ulv14119_1 conn=wye bus1=p6ulv14119.1 kV=0.12 model=7 kW=0.18635787452797736 kvar=-0.0 Phases=1
New Generator.pv_load_p6ulv14121_1 conn=wye bus1=p6ulv14121.1 kV=0.12 model=7 kW=0.22843984842059023 kvar=-0.0 Phases=1
New Generator.pv_load_p6ulv14125_2 conn=wye bus1=p6ulv14125.2 kV=0.12 model=7 kW=0.10971085145325049 kvar=-0.0 Phases=1
New Generator.pv_load_p6ulv14127_1 conn=wye bus1=p6ulv14127.1 kV=0.12 model=7 kW=0.42682071466818133 kvar=-0.0 Phases=1
New Generator.pv_load_p6ulv14130_2 conn=wye bus1=p6ulv14130.2 kV=0.12 model=7 kW=0.17583775677331534 kvar=-0.0 Phases=1
New Generator.pv_load_p6ulv14132_2 conn=wye bus1=p6ulv14132.2 kV=0.12 model=7 kW=0.21942110175691504 kvar=-0.0 Phases=1
New Generator.pv_load_p6ulv14136_1 conn=wye bus1=p6ulv14136.1 kV=0.12 model=7 kW=0.2058952360723496 kvar=-0.0 Phases=1
New Generator.pv_load_p6ulv14137_1 conn=wye bus1=p6ulv14137.1 kV=0.12 model=7 kW=0.21340960589710817 kvar=-0.0 Phases=1
New Generator.pv_load_p6ulv14140_1 conn=wye bus1=p6ulv14140.1 kV=0.12 model=7 kW=0.24196571410515566 kvar=-0.0 Phases=1
New Generator.pv_load_p6ulv14143_2 conn=wye bus1=p6ulv14143.2 kV=0.12 model=7 kW=0.12774563960746405 kvar=-0.0 Phases=1
New Generator.pv_load_p6ulv14144_2 conn=wye bus1=p6ulv14144.2 kV=0.12 model=7 kW=0.4854327993012981 kvar=-0.0 Phases=1
New Generator.pv_load_p6ulv14149_2 conn=wye bus1=p6ulv14149.2 kV=0.12 model=7 kW=0.20739811003730133 kvar=-0.0 Phases=1
New Generator.pv_load_p6ulv14152_1 conn=wye bus1=p6ulv14152.1 kV=0.12 model=7 kW=0.580115361967221 kvar=-0.0 Phases=1
New Generator.pv_load_p6ulv14155_1 conn=wye bus1=p6ulv14155.1 kV=0.12 model=7 kW=0.120231119495309 kvar=-0.0 Phases=1
New Generator.pv_load_p6ulv14158_1 conn=wye bus1=p6ulv14158.1 kV=0.12 model=7 kW=0.10069360766354024 kvar=-0.0 Phases=1
New Generator.pv_load_p6ulv14159_2 conn=wye bus1=p6ulv14159.2 kV=0.12 model=7 kW=0.27803468926399677 kvar=-0.0 Phases=1
New Generator.pv_load_p6ulv14160_1 conn=wye bus1=p6ulv14160.1 kV=0.12 model=7 kW=0.15930614315884653 kvar=-0.0 Phases=1
New Generator.pv_load_p6ulv14160_2 conn=wye bus1=p6ulv14160.2 kV=0.12 model=7 kW=0.15930614315884653 kvar=-0.0 Phases=1
New Generator.pv_load_p6ulv14161_2 conn=wye bus1=p6ulv14161.2 kV=0.12 model=7 kW=0.10820797748829879 kvar=-0.0 Phases=1
New Generator.pv_load_p6ulv14162_2 conn=wye bus1=p6ulv14162.2 kV=0.12 model=7 kW=0.5650866223177038 kvar=-0.0 Phases=1
New Generator.pv_load_p6ulv14163_2 conn=wye bus1=p6ulv14163.2 kV=0.12 model=7 kW=0.21791822779196332 kvar=-0.0 Phases=1
New Generator.pv_load_p6ulv14168_2 conn=wye bus1=p6ulv14168.2 kV=0.12 model=7 kW=0.22994272238554195 kvar=-0.0 Phases=1
New Generator.pv_load_p6ulv14170_1 conn=wye bus1=p6ulv14170.1 kV=0.12 model=7 kW=0.2464743360000108 kvar=-0.0 Phases=1
New Generator.pv_load_p6ulv14170_2 conn=wye bus1=p6ulv14170.2 kV=0.12 model=7 kW=0.2464743360000108 kvar=-0.0 Phases=1
New Generator.pv_load_p6ulv14172_2 conn=wye bus1=p6ulv14172.2 kV=0.12 model=7 kW=0.18485500056302565 kvar=-0.0 Phases=1
New Generator.pv_load_p6ulv14177_2 conn=wye bus1=p6ulv14177.2 kV=0.12 model=7 kW=0.2660116975443831 kvar=-0.0 Phases=1
New Generator.pv_load_p6ulv14178_2 conn=wye bus1=p6ulv14178.2 kV=0.12 model=7 kW=0.2705203194392382 kvar=-0.0 Phases=1
New Generator.pv_load_p6ulv14179_2 conn=wye bus1=p6ulv14179.2 kV=0.12 model=7 kW=0.120231119495309 kvar=-0.0 Phases=1
New Generator.pv_load_p6ulv14181_1 conn=wye bus1=p6ulv14181.1 kV=0.12 model=7 kW=0.22392972365177016 kvar=-0.0 Phases=1
New Generator.pv_load_p6ulv14181_2 conn=wye bus1=p6ulv14181.2 kV=0.12 model=7 kW=0.22392972365177016 kvar=-0.0 Phases=1
New Generator.pv_load_p6ulv14185_1 conn=wye bus1=p6ulv14185.1 kV=0.12 model=7 kW=0.11121372541820221 kvar=-0.0 Phases=1
New Generator.pv_load_p6ulv14189_1 conn=wye bus1=p6ulv14189.1 kV=0.12 model=7 kW=0.8085537075138464 kvar=-0.0 Phases=1
New Generator.pv_load_p6ulv14190 conn=wye bus1=p6ulv14190.1.2.3 kV=0.48 model=7 kW=14.947734742806231 kvar=-0.0 Phases=3
New Generator.pv_load_p6ulv14193_2 conn=wye bus1=p6ulv14193.2 kV=0.12 model=7 kW=0.30959504252798276 kvar=-0.0 Phases=1
New Generator.pv_load_p6ulv14194_2 conn=wye bus1=p6ulv14194.2 kV=0.12 model=7 kW=1.191791077198428 kvar=-0.0 Phases=1
New Generator.pv_load_p6ulv14196_1 conn=wye bus1=p6ulv14196.1 kV=0.12 model=7 kW=0.6312130767755794 kvar=-0.0 Phases=1
New Generator.pv_load_p6ulv14198_2 conn=wye bus1=p6ulv14198.2 kV=0.12 model=7 kW=0.3050864206331276 kvar=-0.0 Phases=1
New Generator.pv_load_p6ulv14199_2 conn=wye bus1=p6ulv14199.2 kV=0.12 model=7 kW=0.2795375632289485 kvar=-0.0 Phases=1
New Generator.pv_load_p6ulv14200_2 conn=wye bus1=p6ulv14200.2 kV=0.12 model=7 kW=0.15028889936913625 kvar=-0.0 Phases=1
New Generator.pv_load_p6ulv14201_1 conn=wye bus1=p6ulv14201.1 kV=0.12 model=7 kW=0.15780326919389484 kvar=-0.0 Phases=1
New Generator.pv_load_p6ulv14201_2 conn=wye bus1=p6ulv14201.2 kV=0.12 model=7 kW=0.15780326919389484 kvar=-0.0 Phases=1
New Generator.pv_load_p6ulv14202_1 conn=wye bus1=p6ulv14202.1 kV=0.12 model=7 kW=0.2720231934041899 kvar=-0.0 Phases=1
New Generator.pv_load_p6ulv14203_1 conn=wye bus1=p6ulv14203.1 kV=0.12 model=7 kW=0.3441611437218722 kvar=-0.0 Phases=1
New Generator.pv_load_p6ulv14214_1 conn=wye bus1=p6ulv14214.1 kV=0.12 model=7 kW=0.30959504252798276 kvar=-0.0 Phases=1
New Generator.pv_load_p6ulv14215_1 conn=wye bus1=p6ulv14215.1 kV=0.12 model=7 kW=0.2810404371939002 kvar=-0.0 Phases=1
New Generator.pv_load_p6ulv14217_1 conn=wye bus1=p6ulv14217.1 kV=0.12 model=7 kW=0.16682051298360506 kvar=-0.0 Phases=1
New Generator.pv_load_p6ulv14220_1 conn=wye bus1=p6ulv14220.1 kV=0.12 model=7 kW=0.3636985052662444 kvar=-0.0 Phases=1
New Generator.pv_load_p6ulv14221_1 conn=wye bus1=p6ulv14221.1 kV=0.12 model=7 kW=0.725895639441502 kvar=-0.0 Phases=1
New Generator.pv_load_p6ulv14223_1 conn=wye bus1=p6ulv14223.1 kV=0.12 model=7 kW=0.21190673193215645 kvar=-0.0 Phases=1
New Generator.pv_load_p6ulv14223_2 conn=wye bus1=p6ulv14223.2 kV=0.12 model=7 kW=0.21190673193215645 kvar=-0.0 Phases=1
New Generator.pv_load_p6ulv17968_2 conn=wye bus1=p6ulv17968.2 kV=0.12 model=7 kW=0.08566471772662661 kvar=-0.0 Phases=1
New Generator.pv_load_p6ulv17969_2 conn=wye bus1=p6ulv17969.2 kV=0.12 model=7 kW=0.2720231934041899 kvar=-0.0 Phases=1
New Generator.pv_load_p6ulv17974_2 conn=wye bus1=p6ulv17974.2 kV=0.12 model=7 kW=0.31109791649293445 kvar=-0.0 Phases=1
New Generator.pv_load_p6ulv17975_1 conn=wye bus1=p6ulv17975.1 kV=0.12 model=7 kW=0.32762953010740326 kvar=-0.0 Phases=1
New Generator.pv_load_p6ulv17976_1 conn=wye bus1=p6ulv17976.1 kV=0.12 model=7 kW=0.28855480701865877 kvar=-0.0 Phases=1
New Generator.pv_load_p6ulv17977_1 conn=wye bus1=p6ulv17977.1 kV=0.12 model=7 kW=0.17132913487846022 kvar=-0.0 Phases=1
New Generator.pv_load_p6ulv17978_1 conn=wye bus1=p6ulv17978.1 kV=0.12 model=7 kW=0.16080901712379822 kvar=-0.0 Phases=1
New Generator.pv_load_p6ulv17980_1 conn=wye bus1=p6ulv17980.1 kV=0.12 model=7 kW=0.2539887058247694 kvar=-0.0 Phases=1
New Generator.pv_load_p6ulv17983_1 conn=wye bus1=p6ulv17983.1 kV=0.12 model=7 kW=0.43283221052798815 kvar=-0.0 Phases=1
New Generator.pv_load_p6ulv17988_1 conn=wye bus1=p6ulv17988.1 kV=0.12 model=7 kW=0.18936362245788077 kvar=-0.0 Phases=1
New Generator.pv_load_p6ulv17988_2 conn=wye bus1=p6ulv17988.2 kV=0.12 model=7 kW=0.18936362245788077 kvar=-0.0 Phases=1
New Generator.pv_load_p6ulv17991_2 conn=wye bus1=p6ulv17991.2 kV=0.12 model=7 kW=0.27502894133409334 kvar=-0.0 Phases=1
New Generator.pv_load_p6ulv17995 conn=wye bus1=p6ulv17995.1.2.3 kV=0.48 model=7 kW=6.360222734634245 kvar=-0.0 Phases=3
New Generator.pv_load_p6ulv17997_1 conn=wye bus1=p6ulv17997.1 kV=0.12 model=7 kW=0.329132404072355 kvar=-0.0 Phases=1
New Generator.pv_load_p6ulv17998_2 conn=wye bus1=p6ulv17998.2 kV=0.12 model=7 kW=0.3050864206331276 kvar=-0.0 Phases=1
New Generator.pv_load_p6ulv17999_1 conn=wye bus1=p6ulv17999.1 kV=0.12 model=7 kW=0.09317908755138515 kvar=-0.0 Phases=1
New Generator.pv_load_p6ulv18008_1 conn=wye bus1=p6ulv18008.1 kV=0.12 model=7 kW=0.11722537156540556 kvar=-0.0 Phases=1
New Generator.pv_load_p6ulv18014_1 conn=wye bus1=p6ulv18014.1 kV=0.12 model=7 kW=0.19988374021254274 kvar=-0.0 Phases=1
New Generator.pv_load_p6ulv18017_2 conn=wye bus1=p6ulv18017.2 kV=0.12 model=7 kW=0.24196571410515566 kvar=-0.0 Phases=1
New Generator.pv_load_p6ulv18019_1 conn=wye bus1=p6ulv18019.1 kV=0.12 model=7 kW=0.18485500056302565 kvar=-0.0 Phases=1
New Generator.pv_load_p6ulv18020_1 conn=wye bus1=p6ulv18020.1 kV=0.12 model=7 kW=0.06312130767755791 kvar=-0.0 Phases=1
New Generator.pv_load_p6ulv18022_1 conn=wye bus1=p6ulv18022.1 kV=0.12 model=7 kW=0.1908664964228325 kvar=-0.0 Phases=1
New Generator.pv_load_p6ulv18023_2 conn=wye bus1=p6ulv18023.2 kV=0.12 model=7 kW=0.26150307564952796 kvar=-0.0 Phases=1
New Generator.pv_load_p6ulv18024_1 conn=wye bus1=p6ulv18024.1 kV=0.12 model=7 kW=0.3126007904578862 kvar=-0.0 Phases=1
New Generator.pv_load_p6ulv18026_1 conn=wye bus1=p6ulv18026.1 kV=0.12 model=7 kW=0.22693697445563854 kvar=-0.0 Phases=1
New Generator.pv_load_p6ulv18028_1 conn=wye bus1=p6ulv18028.1 kV=0.12 model=7 kW=0.2810404371939002 kvar=-0.0 Phases=1
New Generator.pv_load_p6ulv18030_2 conn=wye bus1=p6ulv18030.2 kV=0.12 model=7 kW=0.32011516028264475 kvar=-0.0 Phases=1
New Generator.pv_load_p6ulv18034_1 conn=wye bus1=p6ulv18034.1 kV=0.12 model=7 kW=0.33213815200225844 kvar=-0.0 Phases=1
New Generator.pv_load_p6ulv18037_1 conn=wye bus1=p6ulv18037.1 kV=0.12 model=7 kW=0.34115539579196874 kvar=-0.0 Phases=1
New Generator.pv_load_p6ulv18038_2 conn=wye bus1=p6ulv18038.2 kV=0.12 model=7 kW=0.3141036644228379 kvar=-0.0 Phases=1
New Generator.pv_load_p6ulv18040_2 conn=wye bus1=p6ulv18040.2 kV=0.12 model=7 kW=0.2960691768434174 kvar=-0.0 Phases=1
New Generator.pv_load_p6ulv18042_2 conn=wye bus1=p6ulv18042.2 kV=0.12 model=7 kW=0.33664677389711356 kvar=-0.0 Phases=1
New Generator.pv_load_p6ulv18044_2 conn=wye bus1=p6ulv18044.2 kV=0.12 model=7 kW=0.1698262609135085 kvar=-0.0 Phases=1
New Generator.pv_load_p6ulv18045_1 conn=wye bus1=p6ulv18045.1 kV=0.12 model=7 kW=0.15028889936913625 kvar=-0.0 Phases=1
New Generator.pv_load_p6ulv18045_2 conn=wye bus1=p6ulv18045.2 kV=0.12 model=7 kW=0.15028889936913625 kvar=-0.0 Phases=1
New Generator.pv_load_p6ulv18047_2 conn=wye bus1=p6ulv18047.2 kV=0.12 model=7 kW=0.10820797748829879 kvar=-0.0 Phases=1
New Generator.pv_load_p6ulv18049_1 conn=wye bus1=p6ulv18049.1 kV=0.12 model=7 kW=0.2825433111588519 kvar=-0.0 Phases=1
New Generator.pv_load_p6ulv18050_2 conn=wye bus1=p6ulv18050.2 kV=0.12 model=7 kW=0.4087862270887607 kvar=-0.0 Phases=1
New Generator.pv_load_p6ulv18052_2 conn=wye bus1=p6ulv18052.2 kV=0.12 model=7 kW=0.9438138672334653 kvar=-0.0 Phases=1
New Generator.pv_load_p6ulv18056_1 conn=wye bus1=p6ulv18056.1 kV=0.12 model=7 kW=0.11572249760045385 kvar=-0.0 Phases=1
New Generator.pv_load_p6ulv18056_2 conn=wye bus1=p6ulv18056.2 kV=0.12 model=7 kW=0.11572249760045385 kvar=-0.0 Phases=1
New Generator.pv_load_p6ulv18057_1 conn=wye bus1=p6ulv18057.1 kV=0.12 model=7 kW=0.37872874778972654 kvar=-0.0 Phases=1
New Generator.pv_load_p6ulv18058_2 conn=wye bus1=p6ulv18058.2 kV=0.12 model=7 kW=0.360692757336341 kvar=-0.0 Phases=1
New Generator.pv_load_p6ulv18059_1 conn=wye bus1=p6ulv18059.1 kV=0.12 model=7 kW=0.26901744547428647 kvar=-0.0 Phases=1
New Generator.pv_load_p6ulv18067_2 conn=wye bus1=p6ulv18067.2 kV=0.12 model=7 kW=0.7123697737569367 kvar=-0.0 Phases=1
New Generator.pv_load_p6ulv18071_1 conn=wye bus1=p6ulv18071.1 kV=0.12 model=7 kW=1.4457797830231973 kvar=-0.0 Phases=1
New Generator.pv_load_p6ulv18073_1 conn=wye bus1=p6ulv18073.1 kV=0.12 model=7 kW=0.21791822779196332 kvar=-0.0 Phases=1
New Generator.pv_load_p6ulv18077_1 conn=wye bus1=p6ulv18077.1 kV=0.12 model=7 kW=0.17583775677331534 kvar=-0.0 Phases=1
New Generator.pv_load_p6ulv18078_2 conn=wye bus1=p6ulv18078.2 kV=0.12 model=7 kW=0.2810404371939002 kvar=-0.0 Phases=1
New Generator.pv_load_p6ulv18079_1 conn=wye bus1=p6ulv18079.1 kV=0.12 model=7 kW=0.11872824553035728 kvar=-0.0 Phases=1
New Generator.pv_load_p6ulv18080_2 conn=wye bus1=p6ulv18080.2 kV=0.12 model=7 kW=0.21491247986205989 kvar=-0.0 Phases=1
New Generator.pv_load_p6ulv18082_2 conn=wye bus1=p6ulv18082.2 kV=0.12 model=7 kW=0.15179177333408797 kvar=-0.0 Phases=1
New Generator.pv_load_p6ulv18084_1 conn=wye bus1=p6ulv18084.1 kV=0.12 model=7 kW=0.42531784070322953 kvar=-0.0 Phases=1
New Generator.pv_load_p6ulv18087_2 conn=wye bus1=p6ulv18087.2 kV=0.12 model=7 kW=0.19838086624759108 kvar=-0.0 Phases=1
New Generator.pv_load_p6ulv18089_1 conn=wye bus1=p6ulv18089.1 kV=0.12 model=7 kW=0.21942110175691504 kvar=-0.0 Phases=1
New Generator.pv_load_p6ulv18090_2 conn=wye bus1=p6ulv18090.2 kV=0.12 model=7 kW=0.2720231934041899 kvar=-0.0 Phases=1
New Generator.pv_load_p6ulv18091_2 conn=wye bus1=p6ulv18091.2 kV=0.12 model=7 kW=0.19387224435273592 kvar=-0.0 Phases=1
New Generator.pv_load_p6ulv18097_1 conn=wye bus1=p6ulv18097.1 kV=0.12 model=7 kW=0.21190673193215645 kvar=-0.0 Phases=1
New Generator.pv_load_p6ulv18099_2 conn=wye bus1=p6ulv18099.2 kV=0.12 model=7 kW=0.15479752126399138 kvar=-0.0 Phases=1
New Generator.pv_load_p6ulv18101_1 conn=wye bus1=p6ulv18101.1 kV=0.12 model=7 kW=0.1322542615023192 kvar=-0.0 Phases=1
New Generator.pv_load_p6ulv18102_1 conn=wye bus1=p6ulv18102.1 kV=0.12 model=7 kW=0.1923693703877842 kvar=-0.0 Phases=1
New Generator.pv_load_p6ulv18107_2 conn=wye bus1=p6ulv18107.2 kV=0.12 model=7 kW=0.18936362245788077 kvar=-0.0 Phases=1
New Generator.pv_load_p6ulv18109_2 conn=wye bus1=p6ulv18109.2 kV=0.12 model=7 kW=0.18786074849292905 kvar=-0.0 Phases=1
New Generator.pv_load_p6ulv18118_2 conn=wye bus1=p6ulv18118.2 kV=0.12 model=7 kW=0.4628896898270224 kvar=-0.0 Phases=1
New Generator.pv_load_p6ulv18119_1 conn=wye bus1=p6ulv18119.1 kV=0.12 model=7 kW=0.14427740350932938 kvar=-0.0 Phases=1
New Generator.pv_load_p6ulv18119_2 conn=wye bus1=p6ulv18119.2 kV=0.12 model=7 kW=0.14427740350932938 kvar=-0.0 Phases=1
New Generator.pv_load_p6ulv18120_2 conn=wye bus1=p6ulv18120.2 kV=0.12 model=7 kW=0.21340960589710817 kvar=-0.0 Phases=1
New Generator.pv_load_p6ulv18123_1 conn=wye bus1=p6ulv18123.1 kV=0.12 model=7 kW=0.15930614315884653 kvar=-0.0 Phases=1
New Generator.pv_load_p6ulv18125_1 conn=wye bus1=p6ulv18125.1 kV=0.12 model=7 kW=0.1563003952289431 kvar=-0.0 Phases=1
New Generator.pv_load_p6ulv18128_1 conn=wye bus1=p6ulv18128.1 kV=0.12 model=7 kW=0.1803463786681705 kvar=-0.0 Phases=1
New Generator.pv_load_p6ulv18129_1 conn=wye bus1=p6ulv18129.1 kV=0.12 model=7 kW=0.24046284014020394 kvar=-0.0 Phases=1
New Generator.pv_load_p6ulv18129_2 conn=wye bus1=p6ulv18129.2 kV=0.12 model=7 kW=0.24046284014020394 kvar=-0.0 Phases=1
New Generator.pv_load_p6ulv18130_1 conn=wye bus1=p6ulv18130.1 kV=0.12 model=7 kW=0.21040385796720473 kvar=-0.0 Phases=1
New Generator.pv_load_p6ulv18131_1 conn=wye bus1=p6ulv18131.1 kV=0.12 model=7 kW=0.26450882357943134 kvar=-0.0 Phases=1
New Generator.pv_load_p6ulv18132_2 conn=wye bus1=p6ulv18132.2 kV=0.12 model=7 kW=0.22994272238554195 kvar=-0.0 Phases=1
New Generator.pv_load_p6ulv18134_1 conn=wye bus1=p6ulv18134.1 kV=0.12 model=7 kW=0.2705203194392382 kvar=-0.0 Phases=1
New Generator.pv_load_p6ulv18135_2 conn=wye bus1=p6ulv18135.2 kV=0.12 model=7 kW=0.3922546134742919 kvar=-0.0 Phases=1
New Generator.pv_load_p6ulv18139_1 conn=wye bus1=p6ulv18139.1 kV=0.12 model=7 kW=0.14728315143923282 kvar=-0.0 Phases=1
New Generator.pv_load_p6ulv18140_2 conn=wye bus1=p6ulv18140.2 kV=0.12 model=7 kW=0.22693697445563854 kvar=-0.0 Phases=1
New Generator.pv_load_p6ulv18141_1 conn=wye bus1=p6ulv18141.1 kV=0.12 model=7 kW=0.3005777987382725 kvar=-0.0 Phases=1
New Generator.pv_load_p6ulv18143_2 conn=wye bus1=p6ulv18143.2 kV=0.12 model=7 kW=0.25699445375467284 kvar=-0.0 Phases=1
New Generator.pv_load_p6ulv18144_1 conn=wye bus1=p6ulv18144.1 kV=0.12 model=7 kW=0.06462418164250965 kvar=-0.0 Phases=1
New Generator.pv_load_p6ulv18145_1 conn=wye bus1=p6ulv18145.1 kV=0.12 model=7 kW=0.19838086624759108 kvar=-0.0 Phases=1
New Generator.pv_load_p6ulv18147_1 conn=wye bus1=p6ulv18147.1 kV=0.12 model=7 kW=0.13375713546727092 kvar=-0.0 Phases=1
New Generator.pv_load_p6ulv18148_2 conn=wye bus1=p6ulv18148.2 kV=0.12 model=7 kW=0.25699445375467284 kvar=-0.0 Phases=1
New Generator.pv_load_p6ulv18150_2 conn=wye bus1=p6ulv18150.2 kV=0.12 model=7 kW=0.14277437925698117 kvar=-0.0 Phases=1
New Generator.pv_load_p6ulv18151_1 conn=wye bus1=p6ulv18151.1 kV=0.12 model=7 kW=0.13375713546727092 kvar=-0.0 Phases=1
New Generator.pv_load_p6ulv18152_1 conn=wye bus1=p6ulv18152.1 kV=0.12 model=7 kW=0.1803463786681705 kvar=-0.0 Phases=1
New Generator.pv_load_p6ulv18153_1 conn=wye bus1=p6ulv18153.1 kV=0.12 model=7 kW=0.329132404072355 kvar=-0.0 Phases=1
New Generator.pv_load_p6ulv18157_2 conn=wye bus1=p6ulv18157.2 kV=0.12 model=7 kW=0.1908664964228325 kvar=-0.0 Phases=1
New Generator.pv_load_p6ulv18159_1 conn=wye bus1=p6ulv18158.1 kV=0.12 model=7 kW=0.13826575736212604 kvar=-0.0 Phases=1
New Generator.pv_load_p6ulv18162_1 conn=wye bus1=p6ulv18162.1 kV=0.12 model=7 kW=0.41179197501866416 kvar=-0.0 Phases=1
New Generator.pv_load_p6ulv18163_1 conn=wye bus1=p6ulv18163.1 kV=0.12 model=7 kW=0.15329464729903966 kvar=-0.0 Phases=1
New Generator.pv_load_p6ulv18164_2 conn=wye bus1=p6ulv18164.2 kV=0.12 model=7 kW=0.18786074849292905 kvar=-0.0 Phases=1
New Generator.pv_load_p6ulv18167_2 conn=wye bus1=p6ulv18167.2 kV=0.12 model=7 kW=0.14277437925698117 kvar=-0.0 Phases=1
New Generator.pv_load_p6ulv18169_1 conn=wye bus1=p6ulv18169.1 kV=0.12 model=7 kW=0.15028889936913625 kvar=-0.0 Phases=1
New Generator.pv_load_p6ulv18171_1 conn=wye bus1=p6ulv18171.1 kV=0.12 model=7 kW=0.22994272238554195 kvar=-0.0 Phases=1
New Generator.pv_load_p6ulv18172_1 conn=wye bus1=p6ulv18172.1 kV=0.12 model=7 kW=0.25098295789486597 kvar=-0.0 Phases=1
New Generator.pv_load_p6ulv18174_2 conn=wye bus1=p6ulv18174.2 kV=0.12 model=7 kW=0.2600002016845762 kvar=-0.0 Phases=1
New Generator.pv_load_p6ulv18175_1 conn=wye bus1=p6ulv18175.1 kV=0.12 model=7 kW=0.25248583185981766 kvar=-0.0 Phases=1
New Generator.pv_load_p6ulv18176_1 conn=wye bus1=p6ulv18176.1 kV=0.12 model=7 kW=0.22994272238554195 kvar=-0.0 Phases=1
New Generator.pv_load_p6ulv18180_1 conn=wye bus1=p6ulv18180.1 kV=0.12 model=7 kW=0.18485500056302565 kvar=-0.0 Phases=1
New Generator.pv_load_p6ulv18183_2 conn=wye bus1=p6ulv18183.2 kV=0.12 model=7 kW=0.22242684968681845 kvar=-0.0 Phases=1
New Generator.pv_load_p6ulv18185_1 conn=wye bus1=p6ulv18185.1 kV=0.12 model=7 kW=0.18485500056302565 kvar=-0.0 Phases=1
New Generator.pv_load_p6ulv18187_1 conn=wye bus1=p6ulv18187.1 kV=0.12 model=7 kW=0.2584973277196246 kvar=-0.0 Phases=1
New Generator.pv_load_p6ulv18189_1 conn=wye bus1=p6ulv18189.1 kV=0.12 model=7 kW=0.22543410049068682 kvar=-0.0 Phases=1
New Generator.pv_load_p6ulv18189_2 conn=wye bus1=p6ulv18189.2 kV=0.12 model=7 kW=0.22543410049068682 kvar=-0.0 Phases=1
New Generator.pv_load_p6ulv18191_2 conn=wye bus1=p6ulv18191.2 kV=0.12 model=7 kW=0.7860105980395706 kvar=-0.0 Phases=1
New Generator.pv_load_p6ulv18194_1 conn=wye bus1=p6ulv18194.1 kV=0.12 model=7 kW=0.14728315143923282 kvar=-0.0 Phases=1
New Generator.pv_load_p6ulv18196_2 conn=wye bus1=p6ulv18196.2 kV=0.12 model=7 kW=0.13375713546727092 kvar=-0.0 Phases=1
New Generator.pv_load_p6ulv18198_1 conn=wye bus1=p6ulv18198.1 kV=0.12 model=7 kW=0.15780326919389484 kvar=-0.0 Phases=1
New Generator.pv_load_p6ulv18199_2 conn=wye bus1=p6ulv18199.2 kV=0.12 model=7 kW=0.13976863132707776 kvar=-0.0 Phases=1
New Generator.pv_load_p6ulv18201_2 conn=wye bus1=p6ulv18201.2 kV=0.12 model=7 kW=0.5951441016167381 kvar=-0.0 Phases=1
New Generator.pv_load_p6ulv18206_1 conn=wye bus1=p6ulv18206.1 kV=0.12 model=7 kW=0.2660116975443831 kvar=-0.0 Phases=1
New Generator.pv_load_p6ulv18218_1 conn=wye bus1=p6ulv18218.1 kV=0.12 model=7 kW=0.2043923621073979 kvar=-0.0 Phases=1
New Generator.pv_load_p6ulv18220_1 conn=wye bus1=p6ulv18220.1 kV=0.12 model=7 kW=0.22693697445563854 kvar=-0.0 Phases=1
New Generator.pv_load_p6ulv18226_1 conn=wye bus1=p6ulv18226.1 kV=0.12 model=7 kW=0.25098295789486597 kvar=-0.0 Phases=1
New Generator.pv_load_p6ulv18227_2 conn=wye bus1=p6ulv18227.2 kV=0.12 model=7 kW=0.15930614315884653 kvar=-0.0 Phases=1
New Generator.pv_load_p6ulv18229_2 conn=wye bus1=p6ulv18229.2 kV=0.12 model=7 kW=0.2058952360723496 kvar=-0.0 Phases=1
New Generator.pv_load_p6ulv18237_1 conn=wye bus1=p6ulv18237.1 kV=0.12 model=7 kW=0.11722537156540556 kvar=-0.0 Phases=1
New Generator.pv_load_p6ulv18240_2 conn=wye bus1=p6ulv18240.2 kV=0.12 model=7 kW=0.20288948814244617 kvar=-0.0 Phases=1
New Generator.pv_load_p6ulv18243_1 conn=wye bus1=p6ulv18243.1 kV=0.12 model=7 kW=0.11572249760045385 kvar=-0.0 Phases=1
New Generator.pv_load_p6ulv18244_2 conn=wye bus1=p6ulv18244.2 kV=0.12 model=7 kW=0.6883237903177092 kvar=-0.0 Phases=1
New Generator.pv_load_p6ulv18248_1 conn=wye bus1=p6ulv18248.1 kV=0.12 model=7 kW=0.1908664964228325 kvar=-0.0 Phases=1
New Generator.pv_load_p6ulv18252_2 conn=wye bus1=p6ulv18252.2 kV=0.12 model=7 kW=0.4313293365630364 kvar=-0.0 Phases=1
New Generator.pv_load_p6ulv18256_1 conn=wye bus1=p6ulv18256.1 kV=0.12 model=7 kW=0.20739811003730133 kvar=-0.0 Phases=1
New Generator.pv_load_p6ulv18257_2 conn=wye bus1=p6ulv18257.2 kV=0.12 model=7 kW=0.1563003952289431 kvar=-0.0 Phases=1
New Generator.pv_load_p6ulv18258_1 conn=wye bus1=p6ulv18258.1 kV=0.12 model=7 kW=0.25098295789486597 kvar=-0.0 Phases=1
New Generator.pv_load_p6ulv18259_1 conn=wye bus1=p6ulv18259.1 kV=0.12 model=7 kW=0.25248583185981766 kvar=-0.0 Phases=1
New Generator.pv_load_p6ulv18267_1 conn=wye bus1=p6ulv18267.1 kV=0.12 model=7 kW=0.3261266561424516 kvar=-0.0 Phases=1
New Generator.pv_load_p6ulv18272_1 conn=wye bus1=p6ulv18272.1 kV=0.12 model=7 kW=0.18635787452797736 kvar=-0.0 Phases=1
New Generator.pv_load_p6ulv18274_2 conn=wye bus1=p6ulv18274.2 kV=0.12 model=7 kW=0.18335212659807393 kvar=-0.0 Phases=1
New Generator.pv_load_p6ulv18275_1 conn=wye bus1=p6ulv18275.1 kV=0.12 model=7 kW=0.3065892945980793 kvar=-0.0 Phases=1
New Generator.pv_load_p6ulv18276_2 conn=wye bus1=p6ulv18275.2 kV=0.12 model=7 kW=0.3546812614765341 kvar=-0.0 Phases=1
New Generator.pv_load_p6ulv18277_1 conn=wye bus1=p6ulv18277.1 kV=0.12 model=7 kW=0.15028889936913625 kvar=-0.0 Phases=1
New Generator.pv_load_p6ulv18281_2 conn=wye bus1=p6ulv18281.2 kV=0.12 model=7 kW=2.3730680481380535 kvar=-0.0 Phases=1
New Generator.pv_load_p6ulv18286_2 conn=wye bus1=p6ulv18286.2 kV=0.12 model=7 kW=0.5245075223900426 kvar=-0.0 Phases=1
New Generator.pv_load_p6ulv18287_2 conn=wye bus1=p6ulv18287.2 kV=0.12 model=7 kW=0.757455992705488 kvar=-0.0 Phases=1
New Generator.pv_load_p6ulv18288_1 conn=wye bus1=p6ulv18288.1 kV=0.12 model=7 kW=0.6342188247054826 kvar=-0.0 Phases=1
New Generator.pv_load_p6ulv18288_2 conn=wye bus1=p6ulv18288.2 kV=0.12 model=7 kW=0.6342188247054826 kvar=-0.0 Phases=1
New Generator.pv_load_p6ulv18289_2 conn=wye bus1=p6ulv18289.2 kV=0.12 model=7 kW=0.9152592618993829 kvar=-0.0 Phases=1
New Generator.pv_load_p6ulv18291_1 conn=wye bus1=p6ulv18291.1 kV=0.12 model=7 kW=0.32161803424759644 kvar=-0.0 Phases=1
New Generator.pv_load_p6ulv18293_2 conn=wye bus1=p6ulv18293.2 kV=0.12 model=7 kW=0.799536463724136 kvar=-0.0 Phases=1
New Generator.pv_load_p6ulv18296_2 conn=wye bus1=p6ulv18296.2 kV=0.12 model=7 kW=0.18936362245788077 kvar=-0.0 Phases=1
New Generator.pv_load_p6ulv18299_1 conn=wye bus1=p6ulv18299.1 kV=0.12 model=7 kW=0.14427740350932938 kvar=-0.0 Phases=1
New Generator.pv_load_p6ulv18300_1 conn=wye bus1=p6ulv18300.1 kV=0.12 model=7 kW=0.14728315143923282 kvar=-0.0 Phases=1
New Generator.pv_load_p6ulv18309_1 conn=wye bus1=p6ulv18309.1 kV=0.12 model=7 kW=0.14127150529202945 kvar=-0.0 Phases=1
New Generator.pv_load_p6ulv18310_1 conn=wye bus1=p6ulv18310.1 kV=0.12 model=7 kW=0.14277437925698117 kvar=-0.0 Phases=1
New Generator.pv_load_p6ulv18314_2 conn=wye bus1=p6ulv18314.2 kV=0.12 model=7 kW=0.19687799228263936 kvar=-0.0 Phases=1
New Generator.pv_load_p6ulv18315_2 conn=wye bus1=p6ulv18315.2 kV=0.12 model=7 kW=0.11271674967055043 kvar=-0.0 Phases=1
New Generator.pv_load_p6ulv18319_2 conn=wye bus1=p6ulv18319.2 kV=0.12 model=7 kW=0.12774563960746405 kvar=-0.0 Phases=1
New Generator.pv_load_p6ulv18321_2 conn=wye bus1=p6ulv18321.2 kV=0.12 model=7 kW=0.16531763901865335 kvar=-0.0 Phases=1
New Generator.pv_load_p6ulv18324_1 conn=wye bus1=p6ulv18324.1 kV=0.12 model=7 kW=0.1563003952289431 kvar=-0.0 Phases=1
New Generator.pv_load_p6ulv18325_1 conn=wye bus1=p6ulv18325.1 kV=0.12 model=7 kW=0.16231189108874994 kvar=-0.0 Phases=1
New Generator.pv_load_p6ulv18325_2 conn=wye bus1=p6ulv18325.2 kV=0.12 model=7 kW=0.16231189108874994 kvar=-0.0 Phases=1
New Generator.pv_load_p6ulv18327_1 conn=wye bus1=p6ulv18327.1 kV=0.12 model=7 kW=0.20890098400225304 kvar=-0.0 Phases=1
New Generator.pv_load_p6ulv22324_2 conn=wye bus1=p6ulv22324.2 kV=0.12 model=7 kW=0.25098295789486597 kvar=-0.0 Phases=1
New Generator.pv_load_p6ulv22325 conn=wye bus1=p6ulv22325.1.2.3 kV=0.48 model=7 kW=10.183564158950702 kvar=-0.0 Phases=3
New Generator.pv_load_p6ulv22326_1 conn=wye bus1=p6ulv22326.1 kV=0.12 model=7 kW=0.2660116975443831 kvar=-0.0 Phases=1
New Generator.pv_load_p6ulv22335_2 conn=wye bus1=p6ulv22335.2 kV=0.12 model=7 kW=0.1352600094322226 kvar=-0.0 Phases=1
New Generator.pv_load_p6ulv22336_1 conn=wye bus1=p6ulv22336.1 kV=0.12 model=7 kW=0.11121372541820221 kvar=-0.0 Phases=1
New Generator.pv_load_p6ulv23872_2 conn=wye bus1=p6ulv23872.2 kV=0.12 model=7 kW=0.4448552022476019 kvar=-0.0 Phases=1
New Generator.pv_load_p6ulv23873_2 conn=wye bus1=p6ulv23873.2 kV=0.12 model=7 kW=0.44936382414245696 kvar=-0.0 Phases=1
New Generator.pv_load_p6ulv23878_1 conn=wye bus1=p6ulv23878.1 kV=0.12 model=7 kW=0.22242684968681845 kvar=-0.0 Phases=1
New Generator.pv_load_p6ulv23880_2 conn=wye bus1=p6ulv23880.2 kV=0.12 model=7 kW=0.2449714620350591 kvar=-0.0 Phases=1
New Generator.pv_load_p6ulv23886_2 conn=wye bus1=p6ulv23886.2 kV=0.12 model=7 kW=0.2449714620350591 kvar=-0.0 Phases=1
New Generator.pv_load_p6ulv23888_1 conn=wye bus1=p6ulv23888.1 kV=0.12 model=7 kW=0.19838086624759108 kvar=-0.0 Phases=1
New Generator.pv_load_p6ulv23888_2 conn=wye bus1=p6ulv23888.2 kV=0.12 model=7 kW=0.19838086624759108 kvar=-0.0 Phases=1
New Generator.pv_load_p6ulv23900_1 conn=wye bus1=p6ulv23900.1 kV=0.12 model=7 kW=0.27502894133409334 kvar=-0.0 Phases=1
New Generator.pv_load_p6ulv23901_2 conn=wye bus1=p6ulv23901.2 kV=0.12 model=7 kW=0.2464743360000108 kvar=-0.0 Phases=1
New Generator.pv_load_p6ulv23907_2 conn=wye bus1=p6ulv23907.2 kV=0.12 model=7 kW=0.3050864206331276 kvar=-0.0 Phases=1
New Generator.pv_load_p6ulv23912_2 conn=wye bus1=p6ulv23912.2 kV=0.12 model=7 kW=0.12624261535511583 kvar=-0.0 Phases=1
New Generator.pv_load_p6ulv23915_1 conn=wye bus1=p6ulv23915.1 kV=0.12 model=7 kW=0.11872824553035728 kvar=-0.0 Phases=1
New Generator.pv_load_p6ulv23917_2 conn=wye bus1=p6ulv23917.2 kV=0.12 model=7 kW=0.11872824553035728 kvar=-0.0 Phases=1
New Generator.pv_load_p6ulv23920_2 conn=wye bus1=p6ulv23920.2 kV=0.12 model=7 kW=0.23895996617525225 kvar=-0.0 Phases=1
New Generator.pv_load_p6ulv23927_1 conn=wye bus1=p6ulv23927.1 kV=0.12 model=7 kW=0.24797720996496253 kvar=-0.0 Phases=1
New Generator.pv_load_p6ulv23927_2 conn=wye bus1=p6ulv23927.2 kV=0.12 model=7 kW=0.24797720996496253 kvar=-0.0 Phases=1
New Generator.pv_load_p6ulv23928_1 conn=wye bus1=p6ulv23928.1 kV=0.12 model=7 kW=0.28554905908875533 kvar=-0.0 Phases=1
New Generator.pv_load_p6ulv23928_2 conn=wye bus1=p6ulv23928.2 kV=0.12 model=7 kW=0.28554905908875533 kvar=-0.0 Phases=1
New Generator.pv_load_p6ulv23935_2 conn=wye bus1=p6ulv23935.2 kV=0.12 model=7 kW=0.3020806727032242 kvar=-0.0 Phases=1
New Generator.pv_load_p6ulv23937_1 conn=wye bus1=p6ulv23937.1 kV=0.12 model=7 kW=0.23745709221030054 kvar=-0.0 Phases=1
New Generator.pv_load_p6ulv23938_1 conn=wye bus1=p6ulv23938.1 kV=0.12 model=7 kW=0.22994272238554195 kvar=-0.0 Phases=1
New Generator.pv_load_p6ulv23942_1 conn=wye bus1=p6ulv23942.1 kV=0.12 model=7 kW=0.35768700940643755 kvar=-0.0 Phases=1
New Generator.pv_load_p6ulv23942_2 conn=wye bus1=p6ulv23942.2 kV=0.12 model=7 kW=0.35768700940643755 kvar=-0.0 Phases=1
New Generator.pv_load_p6ulv23945_2 conn=wye bus1=p6ulv23945.2 kV=0.12 model=7 kW=0.23144559635049367 kvar=-0.0 Phases=1
New Generator.pv_load_p6ulv23948_1 conn=wye bus1=p6ulv23948.1 kV=0.12 model=7 kW=0.2464743360000108 kvar=-0.0 Phases=1
New Generator.pv_load_p6ulv23948_2 conn=wye bus1=p6ulv23948.2 kV=0.12 model=7 kW=0.2464743360000108 kvar=-0.0 Phases=1
New Generator.pv_load_p6ulv23949_2 conn=wye bus1=p6ulv23949.2 kV=0.12 model=7 kW=0.26300594961447965 kvar=-0.0 Phases=1
New Generator.pv_load_p6ulv23952_1 conn=wye bus1=p6ulv23952.1 kV=0.12 model=7 kW=0.2600002016845762 kvar=-0.0 Phases=1
New Generator.pv_load_p6ulv23965_1 conn=wye bus1=p6ulv23965.1 kV=0.12 model=7 kW=0.21340960589710817 kvar=-0.0 Phases=1
New Generator.pv_load_p6ulv23968_2 conn=wye bus1=p6ulv23968.2 kV=0.12 model=7 kW=0.3757214969858581 kvar=-0.0 Phases=1
New Generator.pv_load_p6ulv23970_2 conn=wye bus1=p6ulv23970.2 kV=0.12 model=7 kW=0.40427760519390565 kvar=-0.0 Phases=1
New Generator.pv_load_p6ulv23971_1 conn=wye bus1=p6ulv23971.1 kV=0.12 model=7 kW=0.28404618512380364 kvar=-0.0 Phases=1
New Generator.pv_load_p6ulv23971_2 conn=wye bus1=p6ulv23971.2 kV=0.12 model=7 kW=0.28404618512380364 kvar=-0.0 Phases=1
New Generator.pv_load_p6ulv23979_1 conn=wye bus1=p6ulv23979.1 kV=0.12 model=7 kW=0.26901744547428647 kvar=-0.0 Phases=1
New Generator.pv_load_p6ulv23981_1 conn=wye bus1=p6ulv23981.1 kV=0.12 model=7 kW=0.2675145715093348 kvar=-0.0 Phases=1
New Generator.pv_load_p6ulv23982_1 conn=wye bus1=p6ulv23982.1 kV=0.12 model=7 kW=0.120231119495309 kvar=-0.0 Phases=1
New Generator.pv_load_p6ulv23983_1 conn=wye bus1=p6ulv23983.1 kV=0.12 model=7 kW=0.27352606736914165 kvar=-0.0 Phases=1
New Generator.pv_load_p6ulv23983_2 conn=wye bus1=p6ulv23983.2 kV=0.12 model=7 kW=0.27352606736914165 kvar=-0.0 Phases=1
New Generator.pv_load_p6ulv23987_2 conn=wye bus1=p6ulv23987.2 kV=0.12 model=7 kW=0.6402303205652895 kvar=-0.0 Phases=1
New Generator.pv_load_p6ulv23990_2 conn=wye bus1=p6ulv23990.2 kV=0.12 model=7 kW=0.3516755135466307 kvar=-0.0 Phases=1
New Generator.pv_load_p6ulv23992_1 conn=wye bus1=p6ulv23992.1 kV=0.12 model=7 kW=0.44184945431769845 kvar=-0.0 Phases=1
New Generator.pv_load_p6ulv23993_2 conn=wye bus1=p6ulv23993.2 kV=0.12 model=7 kW=0.491444295161105 kvar=-0.0 Phases=1
New Generator.pv_load_p6ulv23994_1 conn=wye bus1=p6ulv23994.1 kV=0.12 model=7 kW=0.371212875091003 kvar=-0.0 Phases=1
New Generator.pv_load_p6ulv23994_2 conn=wye bus1=p6ulv23994.2 kV=0.12 model=7 kW=0.371212875091003 kvar=-0.0 Phases=1
New Generator.pv_load_p6ulv23997_1 conn=wye bus1=p6ulv23997.1 kV=0.12 model=7 kW=0.22843984842059023 kvar=-0.0 Phases=1
New Generator.pv_load_p6ulv24001_2 conn=wye bus1=p6ulv24001.2 kV=0.12 model=7 kW=0.32011516028264475 kvar=-0.0 Phases=1
New Generator.pv_load_p6ulv24004_1 conn=wye bus1=p6ulv24004.1 kV=0.12 model=7 kW=0.846127059511604 kvar=-0.0 Phases=1
New Generator.pv_load_p6ulv24010_1 conn=wye bus1=p6ulv24010.1 kV=0.12 model=7 kW=0.3336410259672101 kvar=-0.0 Phases=1
New Generator.pv_load_p6ulv24010_2 conn=wye bus1=p6ulv24010.2 kV=0.12 model=7 kW=0.3336410259672101 kvar=-0.0 Phases=1
New Generator.pv_load_p6ulv24013_1 conn=wye bus1=p6ulv24013.1 kV=0.12 model=7 kW=0.16080901712379822 kvar=-0.0 Phases=1
New Generator.pv_load_p6ulv24013_2 conn=wye bus1=p6ulv24013.2 kV=0.12 model=7 kW=0.16080901712379822 kvar=-0.0 Phases=1
New Generator.pv_load_p6ulv24014_1 conn=wye bus1=p6ulv24014.1 kV=0.12 model=7 kW=0.22843984842059023 kvar=-0.0 Phases=1
New Generator.pv_load_p6ulv24014_2 conn=wye bus1=p6ulv24014.2 kV=0.12 model=7 kW=0.22843984842059023 kvar=-0.0 Phases=1
New Generator.pv_load_p6ulv24016_2 conn=wye bus1=p6ulv24016.2 kV=0.12 model=7 kW=0.1803463786681705 kvar=-0.0 Phases=1
New Generator.pv_load_p6ulv24017_2 conn=wye bus1=p6ulv24017.2 kV=0.12 model=7 kW=0.2720231934041899 kvar=-0.0 Phases=1
New Generator.pv_load_p6ulv24019_1 conn=wye bus1=p6ulv24019.1 kV=0.12 model=7 kW=0.21491247986205989 kvar=-0.0 Phases=1
New Generator.pv_load_p6ulv24019_2 conn=wye bus1=p6ulv24019.2 kV=0.12 model=7 kW=0.21491247986205989 kvar=-0.0 Phases=1
New Generator.pv_load_p6ulv24020_1 conn=wye bus1=p6ulv24020.1 kV=0.12 model=7 kW=0.21791822779196332 kvar=-0.0 Phases=1
New Generator.pv_load_p6ulv24021_2 conn=wye bus1=p6ulv24021.2 kV=0.12 model=7 kW=0.36670425319614786 kvar=-0.0 Phases=1
New Generator.pv_load_p6ulv24025_1 conn=wye bus1=p6ulv24025.1 kV=0.12 model=7 kW=1.0204619423199677 kvar=-0.0 Phases=1
New Generator.pv_load_p6ulv24025_2 conn=wye bus1=p6ulv24025.2 kV=0.12 model=7 kW=1.0204619423199677 kvar=-0.0 Phases=1
New Generator.pv_load_p6ulv24026_1 conn=wye bus1=p6ulv24026.1 kV=0.12 model=7 kW=0.371212875091003 kvar=-0.0 Phases=1
New Generator.pv_load_p6ulv24030_1 conn=wye bus1=p6ulv24030.1 kV=0.12 model=7 kW=0.35918988337138924 kvar=-0.0 Phases=1
New Generator.pv_load_p6ulv24033_2 conn=wye bus1=p6ulv24033.2 kV=0.12 model=7 kW=0.0976878597336368 kvar=-0.0 Phases=1
New Generator.pv_load_p6ulv24034_2 conn=wye bus1=p6ulv24034.2 kV=0.12 model=7 kW=0.1352600094322226 kvar=-0.0 Phases=1
New Generator.pv_load_p6ulv24036_1 conn=wye bus1=p6ulv24036.1 kV=0.12 model=7 kW=0.20739811003730133 kvar=-0.0 Phases=1
New Generator.pv_load_p6ulv24038_2 conn=wye bus1=p6ulv24038.2 kV=0.12 model=7 kW=1.0700567831633743 kvar=-0.0 Phases=1
New Generator.pv_load_p6ulv24039 conn=wye bus1=p6ulv24039.1.2.3 kV=0.48 model=7 kW=9.402069697175813 kvar=-0.0 Phases=3
New Generator.pv_load_p6ulv24045_2 conn=wye bus1=p6ulv24045.2 kV=0.12 model=7 kW=0.23144559635049367 kvar=-0.0 Phases=1
New Generator.pv_load_p6ulv24051_2 conn=wye bus1=p6ulv24051.2 kV=0.12 model=7 kW=0.1563003952289431 kvar=-0.0 Phases=1
New Generator.pv_load_p6ulv24057_1 conn=wye bus1=p6ulv24057.1 kV=0.12 model=7 kW=0.16080901712379822 kvar=-0.0 Phases=1
New Generator.pv_load_p6ulv24058_2 conn=wye bus1=p6ulv24058.2 kV=0.12 model=7 kW=0.4553753200022639 kvar=-0.0 Phases=1
New Generator.pv_load_p6ulv24067_1 conn=wye bus1=p6ulv24067.1 kV=0.12 model=7 kW=0.2600002016845762 kvar=-0.0 Phases=1
New Generator.pv_load_p6ulv24068_1 conn=wye bus1=p6ulv24068.1 kV=0.12 model=7 kW=0.23595421824534882 kvar=-0.0 Phases=1
New Generator.pv_load_p6ulv24070_1 conn=wye bus1=p6ulv24070.1 kV=0.12 model=7 kW=0.24196571410515566 kvar=-0.0 Phases=1
New Generator.pv_load_p6ulv24078_1 conn=wye bus1=p6ulv24078.1 kV=0.12 model=7 kW=0.10670510352334708 kvar=-0.0 Phases=1
New Generator.pv_load_p6ulv24085_1 conn=wye bus1=p6ulv24085.1 kV=0.12 model=7 kW=0.10369935559344366 kvar=-0.0 Phases=1
New Generator.pv_load_p6ulv24085_2 conn=wye bus1=p6ulv24085.2 kV=0.12 model=7 kW=0.10369935559344366 kvar=-0.0 Phases=1
New Generator.pv_load_p6ulv24088_2 conn=wye bus1=p6ulv24088.2 kV=0.12 model=7 kW=0.28404618512380364 kvar=-0.0 Phases=1
New Generator.pv_load_p6ulv24090_1 conn=wye bus1=p6ulv24090.1 kV=0.12 model=7 kW=0.2164153538270116 kvar=-0.0 Phases=1
New Generator.pv_load_p6ulv24094_1 conn=wye bus1=p6ulv24094.1 kV=0.12 model=7 kW=0.22994272238554195 kvar=-0.0 Phases=1
New Generator.pv_load_p6ulv24094_2 conn=wye bus1=p6ulv24094.2 kV=0.12 model=7 kW=0.22994272238554195 kvar=-0.0 Phases=1
New Generator.pv_load_p6ulv24097_1 conn=wye bus1=p6ulv24097.1 kV=0.12 model=7 kW=0.31861228631769306 kvar=-0.0 Phases=1
New Generator.pv_load_p6ulv24097_2 conn=wye bus1=p6ulv24097.2 kV=0.12 model=7 kW=0.31861228631769306 kvar=-0.0 Phases=1
New Generator.pv_load_p6ulv24098_2 conn=wye bus1=p6ulv24098.2 kV=0.12 model=7 kW=0.3441611437218722 kvar=-0.0 Phases=1
New Generator.pv_load_p6ulv24099_1 conn=wye bus1=p6ulv24099.1 kV=0.12 model=7 kW=0.360692757336341 kvar=-0.0 Phases=1
New Generator.pv_load_p6ulv24101_2 conn=wye bus1=p6ulv24101.2 kV=0.12 model=7 kW=0.13976863132707776 kvar=-0.0 Phases=1
New Generator.pv_load_p6ulv24102_1 conn=wye bus1=p6ulv24102.1 kV=0.12 model=7 kW=0.22543410049068682 kvar=-0.0 Phases=1
New Generator.pv_load_p6ulv24106_1 conn=wye bus1=p6ulv24106.1 kV=0.12 model=7 kW=0.37872874778972654 kvar=-0.0 Phases=1
New Generator.pv_load_p6ulv24112_2 conn=wye bus1=p6ulv24112.2 kV=0.12 model=7 kW=0.24046284014020394 kvar=-0.0 Phases=1
New Generator.pv_load_p6ulv24113_1 conn=wye bus1=p6ulv24113.1 kV=0.12 model=7 kW=0.1232368674252124 kvar=-0.0 Phases=1
New Generator.pv_load_p6ulv24114_1 conn=wye bus1=p6ulv24114.1 kV=0.12 model=7 kW=0.2600002016845762 kvar=-0.0 Phases=1
New Generator.pv_load_p6ulv24115_1 conn=wye bus1=p6ulv24115.1 kV=0.12 model=7 kW=0.18335212659807393 kvar=-0.0 Phases=1
New Generator.pv_load_p6ulv24120_2 conn=wye bus1=p6ulv24120.2 kV=0.12 model=7 kW=0.1698262609135085 kvar=-0.0 Phases=1
New Generator.pv_load_p6ulv24125_1 conn=wye bus1=p6ulv24125.1 kV=0.12 model=7 kW=0.22994272238554195 kvar=-0.0 Phases=1
New Generator.pv_load_p6ulv24125_2 conn=wye bus1=p6ulv24125.2 kV=0.12 model=7 kW=0.22994272238554195 kvar=-0.0 Phases=1
New Generator.pv_load_p6ulv24126_1 conn=wye bus1=p6ulv24126.1 kV=0.12 model=7 kW=0.15930614315884653 kvar=-0.0 Phases=1
New Generator.pv_load_p6ulv24127_1 conn=wye bus1=p6ulv24127.1 kV=0.12 model=7 kW=0.22242684968681845 kvar=-0.0 Phases=1
New Generator.pv_load_p6ulv24127_2 conn=wye bus1=p6ulv24127.2 kV=0.12 model=7 kW=0.22242684968681845 kvar=-0.0 Phases=1
New Generator.pv_load_p6ulv24129_1 conn=wye bus1=p6ulv24129.1 kV=0.12 model=7 kW=0.25699445375467284 kvar=-0.0 Phases=1
New Generator.pv_load_p6ulv24135_1 conn=wye bus1=p6ulv24135.1 kV=0.12 model=7 kW=0.2870519330537071 kvar=-0.0 Phases=1
New Generator.pv_load_p6ulv24135_2 conn=wye bus1=p6ulv24135.2 kV=0.12 model=7 kW=0.2870519330537071 kvar=-0.0 Phases=1
New Generator.pv_load_p6ulv24144_1 conn=wye bus1=p6ulv24144.1 kV=0.12 model=7 kW=0.24948008392991425 kvar=-0.0 Phases=1
New Generator.pv_load_p6ulv24145_2 conn=wye bus1=p6ulv24145.2 kV=0.12 model=7 kW=0.6206929590209173 kvar=-0.0 Phases=1
New Generator.pv_load_p6ulv24147_2 conn=wye bus1=p6ulv24147.2 kV=0.12 model=7 kW=0.17433488280836365 kvar=-0.0 Phases=1
New Generator.pv_load_p6ulv24148_2 conn=wye bus1=p6ulv24148.2 kV=0.12 model=7 kW=0.12173399346026069 kvar=-0.0 Phases=1
New Generator.pv_load_p6ulv24151_2 conn=wye bus1=p6ulv24151.2 kV=0.12 model=7 kW=0.17283200884341193 kvar=-0.0 Phases=1
New Generator.pv_load_p6ulv24155_2 conn=wye bus1=p6ulv24155.2 kV=0.12 model=7 kW=0.23294847031544538 kvar=-0.0 Phases=1
New Generator.pv_load_p6ulv24157_2 conn=wye bus1=p6ulv24157.2 kV=0.12 model=7 kW=0.08115594554437497 kvar=-0.0 Phases=1
New Generator.pv_load_p6ulv24159_2 conn=wye bus1=p6ulv24159.2 kV=0.12 model=7 kW=0.33664677389711356 kvar=-0.0 Phases=1
New Generator.pv_load_p6ulv24160_2 conn=wye bus1=p6ulv24160.2 kV=0.12 model=7 kW=0.15479752126399138 kvar=-0.0 Phases=1
New Generator.pv_load_p6ulv24162_1 conn=wye bus1=p6ulv24162.1 kV=0.12 model=7 kW=0.20739811003730133 kvar=-0.0 Phases=1
New Generator.pv_load_p6ulv24164_2 conn=wye bus1=p6ulv24164.2 kV=0.12 model=7 kW=0.39075173950934017 kvar=-0.0 Phases=1
New Generator.pv_load_p6ulv24170_2 conn=wye bus1=p6ulv24170.2 kV=0.12 model=7 kW=0.21190673193215645 kvar=-0.0 Phases=1
New Generator.pv_load_p6ulv24171_1 conn=wye bus1=p6ulv24171.1 kV=0.12 model=7 kW=0.1803463786681705 kvar=-0.0 Phases=1
New Generator.pv_load_p6ulv24176_1 conn=wye bus1=p6ulv24176.1 kV=0.12 model=7 kW=0.28404618512380364 kvar=-0.0 Phases=1
New Generator.pv_load_p6ulv24177_2 conn=wye bus1=p6ulv24177.2 kV=0.12 model=7 kW=0.15780326919389484 kvar=-0.0 Phases=1
New Generator.pv_load_p6ulv24178_2 conn=wye bus1=p6ulv24178.2 kV=0.12 model=7 kW=0.17583775677331534 kvar=-0.0 Phases=1
New Generator.pv_load_p6ulv24179_2 conn=wye bus1=p6ulv24179.2 kV=0.12 model=7 kW=0.12473974139016412 kvar=-0.0 Phases=1
New Generator.pv_load_p6ulv24183_1 conn=wye bus1=p6ulv24183.1 kV=0.12 model=7 kW=0.16682051298360506 kvar=-0.0 Phases=1
New Generator.pv_load_p6ulv24186_1 conn=wye bus1=p6ulv24186.1 kV=0.12 model=7 kW=0.3727157490559547 kvar=-0.0 Phases=1
New Generator.pv_load_p6ulv24189_1 conn=wye bus1=p6ulv24189.1 kV=0.12 model=7 kW=0.1232368674252124 kvar=-0.0 Phases=1
New Generator.pv_load_p6ulv24189_2 conn=wye bus1=p6ulv24189.2 kV=0.12 model=7 kW=0.1232368674252124 kvar=-0.0 Phases=1
New Generator.pv_load_p6ulv24192_1 conn=wye bus1=p6ulv24192.1 kV=0.12 model=7 kW=0.12173399346026069 kvar=-0.0 Phases=1
New Generator.pv_load_p6ulv24198_1 conn=wye bus1=p6ulv24198.1 kV=0.12 model=7 kW=0.14878602540418454 kvar=-0.0 Phases=1
New Generator.pv_load_p6ulv24199_1 conn=wye bus1=p6ulv24199.1 kV=0.12 model=7 kW=0.08867046565653004 kvar=-0.0 Phases=1
New Generator.pv_load_p6ulv24199_2 conn=wye bus1=p6ulv24199.2 kV=0.12 model=7 kW=0.08867046565653004 kvar=-0.0 Phases=1
New Generator.pv_load_p6ulv31969_1 conn=wye bus1=p6ulv31969.1 kV=0.12 model=7 kW=0.042080921880837445 kvar=-0.0 Phases=1
New Generator.pv_load_p6ulv31969_2 conn=wye bus1=p6ulv31969.2 kV=0.12 model=7 kW=0.042080921880837445 kvar=-0.0 Phases=1
New Generator.pv_load_p6ulv31970_2 conn=wye bus1=p6ulv31970.2 kV=0.12 model=7 kW=0.35918988337138924 kvar=-0.0 Phases=1
New Generator.pv_load_p6ulv31976_2 conn=wye bus1=p6ulv31976.2 kV=0.12 model=7 kW=0.41479772294856765 kvar=-0.0 Phases=1
New Generator.pv_load_p6ulv31977_2 conn=wye bus1=p6ulv31977.2 kV=0.12 model=7 kW=2.272375492486289 kvar=-0.0 Phases=1
New Generator.pv_load_p6ulv31978_1 conn=wye bus1=p6ulv31978.1 kV=0.12 model=7 kW=0.2043923621073979 kvar=-0.0 Phases=1
New Generator.pv_load_p6ulv31979_2 conn=wye bus1=p6ulv31979.2 kV=0.12 model=7 kW=0.3005777987382725 kvar=-0.0 Phases=1
New Generator.pv_load_p6ulv31984 conn=wye bus1=p6ulv31984.1.2.3 kV=0.48 model=7 kW=13.586130930559978 kvar=-0.0 Phases=3
New Generator.pv_load_p6ulv31991_1 conn=wye bus1=p6ulv31991.1 kV=0.12 model=7 kW=0.37421862302090636 kvar=-0.0 Phases=1
New Generator.pv_load_p6ulv31991_2 conn=wye bus1=p6ulv31991.2 kV=0.12 model=7 kW=0.37421862302090636 kvar=-0.0 Phases=1
New Generator.pv_load_p6ulv31998_2 conn=wye bus1=p6ulv31998.2 kV=0.12 model=7 kW=0.13976863132707776 kvar=-0.0 Phases=1
New Generator.pv_load_p6ulv31999_2 conn=wye bus1=p6ulv31999.2 kV=0.12 model=7 kW=0.055606937852799354 kvar=-0.0 Phases=1
